/*--------------------------------*- C++ -*----------------------------------*\
| =========                 |                                                 |
| \\      /  F ield         | OpenFOAM: The Open Source CFD Toolbox           |
|  \\    /   O peration     | Version:  v2012                                 |
|   \\  /    A nd           | Website:  www.openfoam.com                      |
|    \\/     M anipulation  |                                                 |
\*---------------------------------------------------------------------------*/
FoamFile
{
    version     2.0;
    format      ascii;
    class       dictionary;
    location    "constant";
    object      thinFilmGrowthProperties;
}
// * * * * * * * * * * * * * * * * * * * * * * * * * * * * * * * * * * * * * //

a          a [ 0 0 -1 0 0 0 0 ]      3;                                //growth rate 
hmax      hmax    [ 0 1 0 0 0 0 0 ]       1; 
k         k [0 0 0 0 0 0 0] 20;
n         n [0 0 -1 0 0 0 0] 838;                                //
epsilon   epsilon  [ 0 1 0 0 0 0 0 ]     0.1;                                  //threshold for controling growth rate



// ************************************************************************* //
