FoamFile
{
    version         2.0;
    format          ascii;

    root            "/.automount/werner/Werner/bgschaid/bgschaid-foamStuff/DepositionTests";
    case            "neutralTest";
    instance        "system";
    local           "";

    class           dictionary;
    object          funkySetFieldsDict;
}
expressions
(
 initFieldvBottom 
 { field vBottom;
   expression "vector(1/2*0.5*pos().x,0,0)";
   keepPatches true;
 }
);